
     RDKit          3D

 47 50  0  0  0  0  0  0  0  0999 V2000
   -1.8644    1.3494   -1.2080 O   0  0  0  0  0  0  0  0  0  0  0  0
   -1.3279    0.8684   -0.1553 C   0  0  0  0  0  0  0  0  0  0  0  0
   -2.1977    0.6021    0.9227 N   0  0  0  0  0  0  0  0  0  0  0  0
   -3.5920    0.8785    0.7786 C   0  0  0  0  0  0  0  0  0  0  0  0
   -4.4154   -0.1465    0.1412 C   0  0  0  0  0  0  0  0  0  0  0  0
   -5.4956    0.1133   -0.6805 C   0  0  0  0  0  0  0  0  0  0  0  0
   -6.2288   -0.9203   -1.2492 C   0  0  0  0  0  0  0  0  0  0  0  0
   -5.8694   -2.2254   -0.9867 C   0  0  0  0  0  0  0  0  0  0  0  0
   -6.7490   -3.5852   -1.6699 Cl  0  0  0  0  0  0  0  0  0  0  0  0
   -4.7983   -2.5245   -0.1721 C   0  0  0  0  0  0  0  0  0  0  0  0
   -4.0871   -1.4793    0.3798 C   0  0  0  0  0  0  0  0  0  0  0  0
   -3.9874    2.2959    0.4896 C   0  0  0  0  0  0  0  0  0  0  0  0
   -5.0479    2.1274    1.3823 O   0  0  0  0  0  0  0  0  0  0  0  0
   -4.1685    1.3082    2.1250 C   0  0  0  0  0  0  0  0  0  0  0  0
    0.1073    0.6180   -0.0980 C   0  0  0  0  0  0  0  0  0  0  0  0
    0.7424    0.1000    1.0116 C   0  0  0  0  0  0  0  0  0  0  0  0
    2.1027   -0.1321    1.0522 C   0  0  0  0  0  0  0  0  0  0  0  0
    2.8792    0.1624   -0.0615 C   0  0  0  0  0  0  0  0  0  0  0  0
    4.2974   -0.0633   -0.0625 N   0  0  0  0  0  0  0  0  0  0  0  0
    5.1668    0.2233   -1.1940 C   0  0  0  0  0  0  0  0  0  0  0  0
    6.4234   -0.5557   -0.8694 C   0  0  0  0  0  0  0  0  0  0  0  0
    6.4864   -0.3942    0.6433 C   0  0  2  0  0  0  0  0  0  0  0  0
    7.3353   -1.3346    1.2181 O   0  0  0  0  0  0  0  0  0  0  0  0
    5.0500   -0.5946    1.0320 C   0  0  0  0  0  0  0  0  0  0  0  0
    2.2360    0.6806   -1.1679 C   0  0  0  0  0  0  0  0  0  0  0  0
    0.8785    0.9098   -1.2017 C   0  0  0  0  0  0  0  0  0  0  0  0
   -1.8359    0.2087    1.8163 H   0  0  0  0  0  0  0  0  0  0  0  0
   -5.7675    1.1217   -0.8790 H   0  0  0  0  0  0  0  0  0  0  0  0
   -7.0781   -0.7439   -1.8956 H   0  0  0  0  0  0  0  0  0  0  0  0
   -4.5202   -3.5574    0.0308 H   0  0  0  0  0  0  0  0  0  0  0  0
   -3.2465   -1.7561    1.0187 H   0  0  0  0  0  0  0  0  0  0  0  0
   -3.2770    3.0257    0.9260 H   0  0  0  0  0  0  0  0  0  0  0  0
   -4.3403    2.5354   -0.5240 H   0  0  0  0  0  0  0  0  0  0  0  0
   -4.6671    0.4954    2.6687 H   0  0  0  0  0  0  0  0  0  0  0  0
   -3.5046    1.9598    2.7188 H   0  0  0  0  0  0  0  0  0  0  0  0
    0.1713   -0.1397    1.8919 H   0  0  0  0  0  0  0  0  0  0  0  0
    2.5570   -0.5422    1.9510 H   0  0  0  0  0  0  0  0  0  0  0  0
    4.6944   -0.1083   -2.1458 H   0  0  0  0  0  0  0  0  0  0  0  0
    5.3332    1.3179   -1.1679 H   0  0  0  0  0  0  0  0  0  0  0  0
    7.3222   -0.1282   -1.3578 H   0  0  0  0  0  0  0  0  0  0  0  0
    6.2455   -1.5882   -1.1871 H   0  0  0  0  0  0  0  0  0  0  0  0
    6.8710    0.6094    0.8606 H   0  0  0  0  0  0  0  0  0  0  0  0
    8.1629   -1.4405    0.6895 H   0  0  0  0  0  0  0  0  0  0  0  0
    4.8822   -0.0909    1.9950 H   0  0  0  0  0  0  0  0  0  0  0  0
    4.8906   -1.6922    1.1400 H   0  0  0  0  0  0  0  0  0  0  0  0
    2.8264    0.9153   -2.0430 H   0  0  0  0  0  0  0  0  0  0  0  0
    0.4045    1.3167   -2.0839 H   0  0  0  0  0  0  0  0  0  0  0  0
  1  2  2  0
  2  3  1  0
  3  4  1  0
  4  5  1  0
  5  6  2  0
  6  7  1  0
  7  8  2  0
  8  9  1  0
  8 10  1  0
 10 11  2  0
  4 12  1  0
 12 13  1  0
 13 14  1  0
  2 15  1  0
 15 16  2  0
 16 17  1  0
 17 18  2  0
 18 19  1  0
 19 20  1  0
 20 21  1  0
 21 22  1  0
 22 23  1  0
 22 24  1  0
 18 25  1  0
 25 26  2  0
 14  4  1  0
 26 15  1  0
 11  5  1  0
 24 19  1  0
  3 27  1  0
  6 28  1  0
  7 29  1  0
 10 30  1  0
 11 31  1  0
 12 32  1  0
 12 33  1  0
 14 34  1  0
 14 35  1  0
 16 36  1  0
 17 37  1  0
 20 38  1  0
 20 39  1  0
 21 40  1  0
 21 41  1  0
 22 42  1  6
 23 43  1  0
 24 44  1  0
 24 45  1  0
 25 46  1  0
 26 47  1  0
M  END
$$$$
