
     RDKit          3D

 47 51  0  0  0  0  0  0  0  0999 V2000
    3.9711    0.8761    2.5239 C   0  0  0  0  0  0  0  0  0  0  0  0
    2.9818    0.7314    1.4450 N   0  0  0  0  0  0  0  0  0  0  0  0
    1.5671    0.8231    1.5894 C   0  0  0  0  0  0  0  0  0  0  0  0
    1.0170    0.9745    2.7091 O   0  0  0  0  0  0  0  0  0  0  0  0
    0.9197    0.7156    0.2835 C   0  0  2  0  0  0  0  0  0  0  0  0
   -0.2701   -0.0994    0.1781 C   0  0  0  0  0  0  0  0  0  0  0  0
   -1.5922    0.3367    0.1760 C   0  0  0  0  0  0  0  0  0  0  0  0
   -2.1771    1.6480    0.3252 C   0  0  0  0  0  0  0  0  0  0  0  0
   -1.5773    2.7479    0.8812 C   0  0  0  0  0  0  0  0  0  0  0  0
   -2.2025    4.0047    0.9233 C   0  0  0  0  0  0  0  0  0  0  0  0
   -3.4593    4.1812    0.4024 C   0  0  0  0  0  0  0  0  0  0  0  0
   -4.3005    5.7132    0.4184 Cl  0  0  0  0  0  0  0  0  0  0  0  0
   -4.0765    3.1000   -0.1544 C   0  0  0  0  0  0  0  0  0  0  0  0
   -3.4659    1.8793   -0.1950 C   0  0  0  0  0  0  0  0  0  0  0  0
   -2.3835   -0.7654   -0.0287 N   0  0  0  0  0  0  0  0  0  0  0  0
   -1.6682   -1.8605   -0.1509 C   0  0  0  0  0  0  0  0  0  0  0  0
   -0.3306   -1.4682   -0.0223 C   0  0  0  0  0  0  0  0  0  0  0  0
    0.5763   -2.5038   -0.1110 C   0  0  0  0  0  0  0  0  0  0  0  0
    1.7957   -2.2758   -0.0060 O   0  0  0  0  0  0  0  0  0  0  0  0
    0.2070   -3.7878   -0.3081 N   0  0  0  0  0  0  0  0  0  0  0  0
   -1.0864   -4.1260   -0.4288 C   0  0  0  0  0  0  0  0  0  0  0  0
   -1.3757   -5.3169   -0.6092 O   0  0  0  0  0  0  0  0  0  0  0  0
   -2.0076   -3.1507   -0.3474 N   0  0  0  0  0  0  0  0  0  0  0  0
   -3.3939   -3.5356   -0.4797 C   0  0  0  0  0  0  0  0  0  0  0  0
    2.0464    0.4091   -0.6399 C   0  0  0  0  0  0  0  0  0  0  0  0
    2.0618    0.1378   -2.0172 C   0  0  0  0  0  0  0  0  0  0  0  0
    3.2347   -0.0667   -2.7041 C   0  0  0  0  0  0  0  0  0  0  0  0
    4.4110    0.0038   -1.9890 C   0  0  0  0  0  0  0  0  0  0  0  0
    4.4311    0.2691   -0.6285 C   0  0  0  0  0  0  0  0  0  0  0  0
    3.2521    0.4763    0.0734 C   0  0  0  0  0  0  0  0  0  0  0  0
    4.9713    0.8595    2.0836 H   0  0  0  0  0  0  0  0  0  0  0  0
    3.7921    0.0248    3.2363 H   0  0  0  0  0  0  0  0  0  0  0  0
    3.8174    1.7902    3.1188 H   0  0  0  0  0  0  0  0  0  0  0  0
    0.6490    1.7731   -0.0515 H   0  0  0  0  0  0  0  0  0  0  0  0
   -0.6294    2.7034    1.3459 H   0  0  0  0  0  0  0  0  0  0  0  0
   -1.7105    4.8432    1.3611 H   0  0  0  0  0  0  0  0  0  0  0  0
   -5.0834    3.2223   -0.5760 H   0  0  0  0  0  0  0  0  0  0  0  0
   -4.0268    1.0697   -0.6586 H   0  0  0  0  0  0  0  0  0  0  0  0
   -3.4475   -0.7719   -0.0845 H   0  0  0  0  0  0  0  0  0  0  0  0
    0.9297   -4.5351   -0.3687 H   0  0  0  0  0  0  0  0  0  0  0  0
   -3.6856   -3.6920   -1.5416 H   0  0  0  0  0  0  0  0  0  0  0  0
   -3.6121   -4.5182    0.0182 H   0  0  0  0  0  0  0  0  0  0  0  0
   -4.1006   -2.8172   -0.0547 H   0  0  0  0  0  0  0  0  0  0  0  0
    1.1230    0.0907   -2.5410 H   0  0  0  0  0  0  0  0  0  0  0  0
    3.2003   -0.2723   -3.7604 H   0  0  0  0  0  0  0  0  0  0  0  0
    5.3286   -0.1611   -2.5531 H   0  0  0  0  0  0  0  0  0  0  0  0
    5.3790    0.3201   -0.0823 H   0  0  0  0  0  0  0  0  0  0  0  0
  1  2  1  0
  2  3  1  0
  3  4  2  0
  3  5  1  0
  5  6  1  0
  6  7  2  0
  7  8  1  0
  8  9  2  0
  9 10  1  0
 10 11  2  0
 11 12  1  0
 11 13  1  0
 13 14  2  0
  7 15  1  0
 15 16  1  0
 16 17  2  0
 17 18  1  0
 18 19  2  0
 18 20  1  0
 20 21  1  0
 21 22  2  0
 21 23  1  0
 23 24  1  0
  5 25  1  0
 25 26  2  0
 26 27  1  0
 27 28  2  0
 28 29  1  0
 29 30  2  0
 30  2  1  0
 17  6  1  0
 30 25  1  0
 14  8  1  0
 23 16  1  0
  1 31  1  0
  1 32  1  0
  1 33  1  0
  5 34  1  6
  9 35  1  0
 10 36  1  0
 13 37  1  0
 14 38  1  0
 15 39  1  0
 20 40  1  0
 24 41  1  0
 24 42  1  0
 24 43  1  0
 26 44  1  0
 27 45  1  0
 28 46  1  0
 29 47  1  0
M  END
$$$$
