8SHJligand
     RDKit          3D

 47 50  0  0  0  0  0  0  0  0999 V2000
   40.4050    4.0940   19.3050 O   0  0  0  0  0  0  0  0  0  0  0  0
   41.6040    3.8400   19.1750 C   0  0  0  0  0  0  0  0  0  0  0  0
   42.0590    2.5690   19.1140 N   0  0  0  0  0  0  0  0  0  0  0  0
   41.1740    1.3950   19.2230 C   0  0  0  0  0  0  0  0  0  0  0  0
   40.4030    1.1470   17.9170 C   0  0  0  0  0  0  0  0  0  0  0  0
   40.6440    1.9230   16.7850 C   0  0  0  0  0  0  0  0  0  0  0  0
   39.9780    1.6820   15.5940 C   0  0  0  0  0  0  0  0  0  0  0  0
   39.0610    0.6500   15.5320 C   0  0  0  0  0  0  0  0  0  0  0  0
   38.2980    0.2740   14.0090 Cl  0  0  0  0  0  0  0  0  0  0  0  0
   38.7810   -0.1270   16.6380 C   0  0  0  0  0  0  0  0  0  0  0  0
   39.4590    0.1210   17.8220 C   0  0  0  0  0  0  0  0  0  0  0  0
   41.9010    0.1830   19.8380 C   0  0  0  0  0  0  0  0  0  0  0  0
   40.9090    0.0800   20.8950 O   0  0  0  0  0  0  0  0  0  0  0  0
   40.3350    1.3590   20.5160 C   0  0  0  0  0  0  0  0  0  0  0  0
   42.6130    4.9400   19.0220 C   0  0  0  0  0  0  0  0  0  0  0  0
   42.1380    6.2490   19.0700 C   0  0  0  0  0  0  0  0  0  0  0  0
   42.9720    7.3200   18.7900 C   0  0  0  0  0  0  0  0  0  0  0  0
   44.3170    7.1130   18.4680 C   0  0  0  0  0  0  0  0  0  0  0  0
   45.1560    8.2090   18.1880 N   0  0  0  0  0  0  0  0  0  0  0  0
   44.7370    9.6100   18.3170 C   0  0  0  0  0  0  0  0  0  0  0  0
   46.0470   10.3860   18.2360 C   0  0  0  0  0  0  0  0  0  0  0  0
   46.9260    9.5230   17.3680 C   0  0  2  0  0  0  0  0  0  0  0  0
   46.5870    9.7630   15.9990 O   0  0  0  0  0  0  0  0  0  0  0  0
   46.5600    8.0990   17.7880 C   0  0  0  0  0  0  0  0  0  0  0  0
   44.8020    5.8010   18.4360 C   0  0  0  0  0  0  0  0  0  0  0  0
   43.9610    4.7310   18.7190 C   0  0  0  0  0  0  0  0  0  0  0  0
   43.0690    2.4140   18.9860 H   0  0  0  0  0  0  0  0  0  0  0  0
   41.3764    2.7420   16.8378 H   0  0  0  0  0  0  0  0  0  0  0  0
   40.1767    2.3043   14.7090 H   0  0  0  0  0  0  0  0  0  0  0  0
   38.0318   -0.9304   16.5811 H   0  0  0  0  0  0  0  0  0  0  0  0
   39.2496   -0.5022   18.7039 H   0  0  0  0  0  0  0  0  0  0  0  0
   41.9373   -0.6951   19.1765 H   0  0  0  0  0  0  0  0  0  0  0  0
   42.9670    0.2617   20.0976 H   0  0  0  0  0  0  0  0  0  0  0  0
   39.2498    1.3234   20.3398 H   0  0  0  0  0  0  0  0  0  0  0  0
   40.3798    2.2050   21.2176 H   0  0  0  0  0  0  0  0  0  0  0  0
   41.0864    6.4350   19.3338 H   0  0  0  0  0  0  0  0  0  0  0  0
   42.5715    8.3440   18.8214 H   0  0  0  0  0  0  0  0  0  0  0  0
   44.0608    9.8946   17.4974 H   0  0  0  0  0  0  0  0  0  0  0  0
   44.1815    9.8058   19.2460 H   0  0  0  0  0  0  0  0  0  0  0  0
   45.8897   11.3725   17.7755 H   0  0  0  0  0  0  0  0  0  0  0  0
   46.4871   10.5802   19.2253 H   0  0  0  0  0  0  0  0  0  0  0  0
   48.0034    9.7170   17.4760 H   0  0  0  0  0  0  0  0  0  0  0  0
   45.7800   10.3340   15.9540 H   0  0  0  0  0  0  0  0  0  0  0  0
   46.6753    7.3994   16.9470 H   0  0  0  0  0  0  0  0  0  0  0  0
   47.2043    7.7108   18.5906 H   0  0  0  0  0  0  0  0  0  0  0  0
   45.8567    5.6148   18.1850 H   0  0  0  0  0  0  0  0  0  0  0  0
   44.3617    3.7067   18.7042 H   0  0  0  0  0  0  0  0  0  0  0  0
  1  2  2  0
  2  3  1  0
  3  4  1  0
  4  5  1  0
  5  6  2  0
  6  7  1  0
  7  8  2  0
  8  9  1  0
  8 10  1  0
 10 11  2  0
  4 12  1  0
 12 13  1  0
 13 14  1  0
  2 15  1  0
 15 16  2  0
 16 17  1  0
 17 18  2  0
 18 19  1  0
 19 20  1  0
 20 21  1  0
 21 22  1  0
 22 23  1  0
 22 24  1  0
 18 25  1  0
 25 26  2  0
 14  4  1  0
 26 15  1  0
 11  5  1  0
 24 19  1  0
  3 27  1  0
  6 28  1  0
  7 29  1  0
 10 30  1  0
 11 31  1  0
 12 32  1  0
 12 33  1  0
 14 34  1  0
 14 35  1  0
 16 36  1  0
 17 37  1  0
 20 38  1  0
 20 39  1  0
 21 40  1  0
 21 41  1  0
 22 42  1  6
 23 43  1  0
 24 44  1  0
 24 45  1  0
 25 46  1  0
 26 47  1  0
M  END
>  <meeko>  (1) 
{"is_sidechain": [false]}

$$$$
