9EJOligand_5c469d24
     RDKit          3D

 47 51  0  0  0  0  0  0  0  0999 V2000
   40.2400    5.7400   22.7600 C   0  0  0  0  0  0  0  0  0  0  0  0
   40.4660    5.1850   21.4310 N   0  0  0  0  0  0  0  0  0  0  0  0
   39.9750    3.9330   20.9510 C   0  0  0  0  0  0  0  0  0  0  0  0
   39.0640    3.2840   21.5300 O   0  0  0  0  0  0  0  0  0  0  0  0
   40.6520    3.4890   19.6870 C   0  0  2  0  0  0  0  0  0  0  0  0
   41.2830    2.1180   19.8350 C   0  0  0  0  0  0  0  0  0  0  0  0
   41.1100    0.9790   19.0320 C   0  0  0  0  0  0  0  0  0  0  0  0
   40.2850    0.8770   17.8190 C   0  0  0  0  0  0  0  0  0  0  0  0
   39.2490   -0.0650   17.7440 C   0  0  0  0  0  0  0  0  0  0  0  0
   38.4970   -0.1880   16.5720 C   0  0  0  0  0  0  0  0  0  0  0  0
   38.7680    0.6380   15.4760 C   0  0  0  0  0  0  0  0  0  0  0  0
   37.8360    0.4700   14.0000 Cl  0  0  0  0  0  0  0  0  0  0  0  0
   39.7810    1.5990   15.5590 C   0  0  0  0  0  0  0  0  0  0  0  0
   40.5330    1.7250   16.7300 C   0  0  0  0  0  0  0  0  0  0  0  0
   41.8180   -0.0660   19.5170 N   0  0  0  0  0  0  0  0  0  0  0  0
   42.4650    0.4000   20.6010 C   0  0  0  0  0  0  0  0  0  0  0  0
   42.1770    1.7190   20.8210 C   0  0  0  0  0  0  0  0  0  0  0  0
   42.7780    2.3840   21.8850 C   0  0  0  0  0  0  0  0  0  0  0  0
   42.5560    3.6030   22.1100 O   0  0  0  0  0  0  0  0  0  0  0  0
   43.6320    1.6820   22.6850 N   0  0  0  0  0  0  0  0  0  0  0  0
   43.9060    0.3580   22.4550 C   0  0  0  0  0  0  0  0  0  0  0  0
   44.7070   -0.2420   23.2240 O   0  0  0  0  0  0  0  0  0  0  0  0
   43.3190   -0.3050   21.4000 N   0  0  0  0  0  0  0  0  0  0  0  0
   43.5960   -1.7200   21.1150 C   0  0  0  0  0  0  0  0  0  0  0  0
   41.6550    4.5940   19.5280 C   0  0  0  0  0  0  0  0  0  0  0  0
   42.6400    4.7320   18.5470 C   0  0  0  0  0  0  0  0  0  0  0  0
   43.5170    5.8250   18.6280 C   0  0  0  0  0  0  0  0  0  0  0  0
   43.3970    6.7590   19.6760 C   0  0  0  0  0  0  0  0  0  0  0  0
   42.3910    6.6130   20.6450 C   0  0  0  0  0  0  0  0  0  0  0  0
   41.5220    5.5250   20.5410 C   0  0  0  0  0  0  0  0  0  0  0  0
   40.5397    5.0040   23.5205 H   0  0  0  0  0  0  0  0  0  0  0  0
   40.8367    6.6561   22.8811 H   0  0  0  0  0  0  0  0  0  0  0  0
   39.1731    5.9787   22.8811 H   0  0  0  0  0  0  0  0  0  0  0  0
   39.9915    3.3555   18.8176 H   0  0  0  0  0  0  0  0  0  0  0  0
   39.0277   -0.7081   18.6086 H   0  0  0  0  0  0  0  0  0  0  0  0
   37.6916   -0.9348   16.5116 H   0  0  0  0  0  0  0  0  0  0  0  0
   39.9859    2.2565   14.7013 H   0  0  0  0  0  0  0  0  0  0  0  0
   41.3203    2.4902   16.7977 H   0  0  0  0  0  0  0  0  0  0  0  0
   41.8620   -1.0270   19.1100 H   0  0  0  0  0  0  0  0  0  0  0  0
   44.0910    2.1670   23.4890 H   0  0  0  0  0  0  0  0  0  0  0  0
   43.7037   -2.2704   22.0613 H   0  0  0  0  0  0  0  0  0  0  0  0
   42.7644   -2.1469   20.5352 H   0  0  0  0  0  0  0  0  0  0  0  0
   44.5272   -1.8018   20.5352 H   0  0  0  0  0  0  0  0  0  0  0  0
   42.7264    4.0008   17.7297 H   0  0  0  0  0  0  0  0  0  0  0  0
   44.3026    5.9531   17.8688 H   0  0  0  0  0  0  0  0  0  0  0  0
   44.0950    7.6071   19.7356 H   0  0  0  0  0  0  0  0  0  0  0  0
   42.2901    7.3381   21.4660 H   0  0  0  0  0  0  0  0  0  0  0  0
  1  2  1  0
  2  3  1  0
  3  4  2  0
  3  5  1  0
  5  6  1  0
  6  7  2  0
  7  8  1  0
  8  9  2  0
  9 10  1  0
 10 11  2  0
 11 12  1  0
 11 13  1  0
 13 14  2  0
  7 15  1  0
 15 16  1  0
 16 17  2  0
 17 18  1  0
 18 19  2  0
 18 20  1  0
 20 21  1  0
 21 22  2  0
 21 23  1  0
 23 24  1  0
  5 25  1  0
 25 26  2  0
 26 27  1  0
 27 28  2  0
 28 29  1  0
 29 30  2  0
 30  2  1  0
 17  6  1  0
 30 25  1  0
 14  8  1  0
 23 16  1  0
  1 31  1  0
  1 32  1  0
  1 33  1  0
  5 34  1  6
  9 35  1  0
 10 36  1  0
 13 37  1  0
 14 38  1  0
 15 39  1  0
 20 40  1  0
 24 41  1  0
 24 42  1  0
 24 43  1  0
 26 44  1  0
 27 45  1  0
 28 46  1  0
 29 47  1  0
M  END
>  <meeko>  (1) 
{"is_sidechain": [false], "free_energy": -6.202, "intermolecular_energy": -9.79, "internal_energy": 0.935}

>  <Best Score>  (1) 
0.8417351294673572

>  <Shape Score>  (1) 
0.7145141451414514

>  <Esp Score>  (1) 
0.9689561137932631

>  <Reference Crystal Ligand>  (1) 
9EJOligand

$$$$
