8SHJligand_96ec9bd1
     RDKit          3D

 47 50  0  0  0  0  0  0  0  0999 V2000
   40.2350    3.9040   19.5740 O   0  0  0  0  0  0  0  0  0  0  0  0
   41.4190    3.7170   19.1830 C   0  0  0  0  0  0  0  0  0  0  0  0
   41.9060    2.3750   19.0000 N   0  0  0  0  0  0  0  0  0  0  0  0
   41.0560    1.1900   19.1690 C   0  0  0  0  0  0  0  0  0  0  0  0
   40.2360    0.8740   17.9300 C   0  0  0  0  0  0  0  0  0  0  0  0
   39.4200   -0.2720   17.8660 C   0  0  0  0  0  0  0  0  0  0  0  0
   38.7220   -0.5800   16.6930 C   0  0  0  0  0  0  0  0  0  0  0  0
   38.8500    0.2340   15.5650 C   0  0  0  0  0  0  0  0  0  0  0  0
   37.9770   -0.1570   14.0950 Cl  0  0  0  0  0  0  0  0  0  0  0  0
   39.6860    1.3540   15.6060 C   0  0  0  0  0  0  0  0  0  0  0  0
   40.3850    1.6640   16.7750 C   0  0  0  0  0  0  0  0  0  0  0  0
   40.2580    1.2320   20.4660 C   0  0  0  0  0  0  0  0  0  0  0  0
   40.9800    0.1680   21.0320 O   0  0  0  0  0  0  0  0  0  0  0  0
   41.7570    0.0330   19.8690 C   0  0  0  0  0  0  0  0  0  0  0  0
   42.2930    4.8880   18.9320 C   0  0  0  0  0  0  0  0  0  0  0  0
   43.6810    4.7390   18.7770 C   0  0  0  0  0  0  0  0  0  0  0  0
   44.4930    5.8500   18.5360 C   0  0  0  0  0  0  0  0  0  0  0  0
   43.9370    7.1400   18.4390 C   0  0  0  0  0  0  0  0  0  0  0  0
   44.7790    8.2910   18.1900 N   0  0  0  0  0  0  0  0  0  0  0  0
   44.6390    9.5660   18.8810 C   0  0  0  0  0  0  0  0  0  0  0  0
   45.5960   10.5240   18.1860 C   0  0  0  0  0  0  0  0  0  0  0  0
   46.5900    9.6380   17.4400 C   0  0  2  0  0  0  0  0  0  0  0  0
   46.9610   10.2260   16.2220 O   0  0  0  0  0  0  0  0  0  0  0  0
   45.8650    8.3110   17.2200 C   0  0  0  0  0  0  0  0  0  0  0  0
   42.5450    7.2840   18.5840 C   0  0  0  0  0  0  0  0  0  0  0  0
   41.7340    6.1720   18.8240 C   0  0  0  0  0  0  0  0  0  0  0  0
   42.9370    2.2260   18.9250 H   0  0  0  0  0  0  0  0  0  0  0  0
   39.3308   -0.9291   18.7436 H   0  0  0  0  0  0  0  0  0  0  0  0
   38.0706   -1.4657   16.6590 H   0  0  0  0  0  0  0  0  0  0  0  0
   39.7934    1.9920   14.7164 H   0  0  0  0  0  0  0  0  0  0  0  0
   41.0582    2.5338   16.7929 H   0  0  0  0  0  0  0  0  0  0  0  0
   40.3691    2.1775   21.0170 H   0  0  0  0  0  0  0  0  0  0  0  0
   39.1615    1.1601   20.4155 H   0  0  0  0  0  0  0  0  0  0  0  0
   42.8297    0.2093   20.0372 H   0  0  0  0  0  0  0  0  0  0  0  0
   41.7936   -0.9453   19.3674 H   0  0  0  0  0  0  0  0  0  0  0  0
   44.1328    3.7384   18.8460 H   0  0  0  0  0  0  0  0  0  0  0  0
   45.5786    5.7155   18.4208 H   0  0  0  0  0  0  0  0  0  0  0  0
   43.6051    9.9330   18.8013 H   0  0  0  0  0  0  0  0  0  0  0  0
   44.8687    9.4721   19.9526 H   0  0  0  0  0  0  0  0  0  0  0  0
   45.0504   11.1680   17.4806 H   0  0  0  0  0  0  0  0  0  0  0  0
   46.1001   11.1888   18.9029 H   0  0  0  0  0  0  0  0  0  0  0  0
   47.5220    9.4959   18.0067 H   0  0  0  0  0  0  0  0  0  0  0  0
   46.7500    9.5630   15.5140 H   0  0  0  0  0  0  0  0  0  0  0  0
   45.4662    8.2567   16.1963 H   0  0  0  0  0  0  0  0  0  0  0  0
   46.5406    7.4525   17.3485 H   0  0  0  0  0  0  0  0  0  0  0  0
   42.0904    8.2827   18.5076 H   0  0  0  0  0  0  0  0  0  0  0  0
   40.6470    6.3033   18.9294 H   0  0  0  0  0  0  0  0  0  0  0  0
  1  2  2  0
  2  3  1  0
  3  4  1  0
  4  5  1  0
  5  6  2  0
  6  7  1  0
  7  8  2  0
  8  9  1  0
  8 10  1  0
 10 11  2  0
  4 12  1  0
 12 13  1  0
 13 14  1  0
  2 15  1  0
 15 16  2  0
 16 17  1  0
 17 18  2  0
 18 19  1  0
 19 20  1  0
 20 21  1  0
 21 22  1  0
 22 23  1  0
 22 24  1  0
 18 25  1  0
 25 26  2  0
 14  4  1  0
 26 15  1  0
 11  5  1  0
 24 19  1  0
  3 27  1  0
  6 28  1  0
  7 29  1  0
 10 30  1  0
 11 31  1  0
 12 32  1  0
 12 33  1  0
 14 34  1  0
 14 35  1  0
 16 36  1  0
 17 37  1  0
 20 38  1  0
 20 39  1  0
 21 40  1  0
 21 41  1  0
 22 42  1  1
 23 43  1  0
 24 44  1  0
 24 45  1  0
 25 46  1  0
 26 47  1  0
M  END
>  <meeko>  (1) 
{"is_sidechain": [false], "free_energy": -7.435, "intermolecular_energy": -9.391, "internal_energy": -0.066}

>  <Best Score>  (1) 
0.8321657258886231

>  <Shape Score>  (1) 
0.7809510410804728

>  <Esp Score>  (1) 
0.8833804106967735

>  <Reference Crystal Ligand>  (1) 
8SHJligand

$$$$
