9DTBligand
     RDKit          3D

 50 54  0  0  0  0  0  0  0  0999 V2000
   37.8830   -3.5470   17.0730 N   0  0  0  0  0  0  0  0  0  0  0  0
   38.3550   -2.5350   16.8020 C   0  0  0  0  0  0  0  0  0  0  0  0
   38.9830   -1.2640   16.5440 C   0  0  0  0  0  0  0  0  0  0  0  0
   38.9180   -0.6650   15.2760 C   0  0  0  0  0  0  0  0  0  0  0  0
   39.4280    0.6190   15.0800 C   0  0  0  0  0  0  0  0  0  0  0  0
   40.0110    1.3100   16.1380 C   0  0  0  0  0  0  0  0  0  0  0  0
   40.0790    0.7150   17.3950 C   0  0  0  0  0  0  0  0  0  0  0  0
   39.5820   -0.5610   17.6020 C   0  0  0  0  0  0  0  0  0  0  0  0
   40.0090   -1.0770   18.9510 C   0  0  0  0  0  0  0  0  0  0  0  0
   41.0860   -0.0680   19.3880 C   0  0  0  0  0  0  0  0  0  0  0  0
   40.6030    1.2280   18.7160 C   0  0  1  0  0  0  0  0  0  0  0  0
   41.6210    2.2670   18.5900 N   0  0  0  0  0  0  0  0  0  0  0  0
   41.4310    3.4850   19.0920 C   0  0  0  0  0  0  0  0  0  0  0  0
   40.4060    3.7760   19.7030 O   0  0  0  0  0  0  0  0  0  0  0  0
   42.5200    4.4900   18.8840 C   0  0  0  0  0  0  0  0  0  0  0  0
   42.2160    5.8500   18.8360 C   0  0  0  0  0  0  0  0  0  0  0  0
   43.2070    6.7880   18.6170 C   0  0  0  0  0  0  0  0  0  0  0  0
   44.5270    6.3850   18.4410 C   0  0  0  0  0  0  0  0  0  0  0  0
   45.4980    7.2630   17.9470 N   0  0  0  0  0  0  0  0  0  0  0  0
   45.5880    8.6100   17.9670 C   0  0  0  0  0  0  0  0  0  0  0  0
   44.7810    9.3030   18.7840 N   0  0  0  0  0  0  0  0  0  0  0  0
   44.9760   10.6300   18.8410 C   0  0  0  0  0  0  0  0  0  0  0  0
   45.8670   11.3640   18.1890 N   0  0  0  0  0  0  0  0  0  0  0  0
   46.6970   10.6690   17.3460 C   0  0  0  0  0  0  0  0  0  0  0  0
   47.6350   11.3920   16.5690 C   0  0  0  0  0  0  0  0  0  0  0  0
   48.4390   10.7410   15.6700 C   0  0  0  0  0  0  0  0  0  0  0  0
   48.3490    9.3660   15.5070 C   0  0  0  0  0  0  0  0  0  0  0  0
   47.4590    8.6370   16.2400 C   0  0  0  0  0  0  0  0  0  0  0  0
   46.6070    9.2660   17.1840 C   0  0  0  0  0  0  0  0  0  0  0  0
   44.8380    5.0310   18.4970 C   0  0  0  0  0  0  0  0  0  0  0  0
   43.8440    4.0950   18.7140 C   0  0  0  0  0  0  0  0  0  0  0  0
   38.4639   -1.2092   14.4348 H   0  0  0  0  0  0  0  0  0  0  0  0
   39.3690    1.0865   14.0860 H   0  0  0  0  0  0  0  0  0  0  0  0
   40.4159    2.3208   15.9820 H   0  0  0  0  0  0  0  0  0  0  0  0
   39.1649   -1.0833   19.6563 H   0  0  0  0  0  0  0  0  0  0  0  0
   40.3758   -2.1136   18.9203 H   0  0  0  0  0  0  0  0  0  0  0  0
   41.1149    0.0364   20.4827 H   0  0  0  0  0  0  0  0  0  0  0  0
   42.1079   -0.3600   19.1043 H   0  0  0  0  0  0  0  0  0  0  0  0
   39.8480    1.7628   19.3109 H   0  0  0  0  0  0  0  0  0  0  0  0
   42.5030    2.0530   18.1030 H   0  0  0  0  0  0  0  0  0  0  0  0
   41.1758    6.1800   18.9740 H   0  0  0  0  0  0  0  0  0  0  0  0
   42.9512    7.8573   18.5817 H   0  0  0  0  0  0  0  0  0  0  0  0
   46.2900    6.7960   17.4830 H   0  0  0  0  0  0  0  0  0  0  0  0
   44.3078   11.1816   19.5187 H   0  0  0  0  0  0  0  0  0  0  0  0
   47.7186   12.4824   16.6878 H   0  0  0  0  0  0  0  0  0  0  0  0
   49.1627   11.3141   15.0719 H   0  0  0  0  0  0  0  0  0  0  0  0
   49.0011    8.8593   14.7803 H   0  0  0  0  0  0  0  0  0  0  0  0
   47.4012    7.5478   16.0973 H   0  0  0  0  0  0  0  0  0  0  0  0
   45.8800    4.7030   18.3680 H   0  0  0  0  0  0  0  0  0  0  0  0
   44.1021    3.0264   18.7528 H   0  0  0  0  0  0  0  0  0  0  0  0
  1  2  3  0
  2  3  1  0
  3  4  2  0
  4  5  1  0
  5  6  2  0
  6  7  1  0
  7  8  2  0
  8  9  1  0
  9 10  1  0
 10 11  1  0
 11 12  1  0
 12 13  1  0
 13 14  2  0
 13 15  1  0
 15 16  2  0
 16 17  1  0
 17 18  2  0
 18 19  1  0
 19 20  1  0
 20 21  2  0
 21 22  1  0
 22 23  2  0
 23 24  1  0
 24 25  2  0
 25 26  1  0
 26 27  2  0
 27 28  1  0
 28 29  2  0
 18 30  1  0
 30 31  2  0
  8  3  1  0
 31 15  1  0
 11  7  1  0
 29 20  1  0
 29 24  1  0
  4 32  1  0
  5 33  1  0
  6 34  1  0
  9 35  1  0
  9 36  1  0
 10 37  1  0
 10 38  1  0
 11 39  1  1
 12 40  1  0
 16 41  1  0
 17 42  1  0
 19 43  1  0
 22 44  1  0
 25 45  1  0
 26 46  1  0
 27 47  1  0
 28 48  1  0
 30 49  1  0
 31 50  1  0
M  END
>  <meeko>  (1) 
{"is_sidechain": [false]}

$$$$
