9EJPligand
     RDKit          3D

 44 47  0  0  0  0  0  0  0  0999 V2000
   40.0910    2.9350   19.6080 O   0  0  0  0  0  0  0  0  0  0  0  0
   41.1960    2.7580   19.1110 C   0  0  0  0  0  0  0  0  0  0  0  0
   41.5830    1.5640   18.6440 N   0  0  0  0  0  0  0  0  0  0  0  0
   40.7160    0.3930   18.6460 C   0  0  2  0  0  0  0  0  0  0  0  0
   41.5700   -0.7950   19.0890 C   0  0  0  0  0  0  0  0  0  0  0  0
   40.7970   -1.8970   19.8110 C   0  0  0  0  0  0  0  0  0  0  0  0
   39.9330   -2.7600   18.9140 C   0  0  0  0  0  0  0  0  0  0  0  0
   38.5530   -1.8800   18.2240 S   0  0  0  0  0  0  0  0  0  0  0  0
   38.0230   -1.0110   19.2320 O   0  0  0  0  0  0  0  0  0  0  0  0
   37.6700   -2.8550   17.6370 O   0  0  0  0  0  0  0  0  0  0  0  0
   39.1960   -0.8400   16.9570 C   0  0  0  0  0  0  0  0  0  0  0  0
   38.6900   -1.0050   15.6730 C   0  0  0  0  0  0  0  0  0  0  0  0
   39.0310   -0.0910   14.6900 C   0  0  0  0  0  0  0  0  0  0  0  0
   39.8700    0.9630   14.9860 C   0  0  0  0  0  0  0  0  0  0  0  0
   40.3710    1.1150   16.2690 C   0  0  0  0  0  0  0  0  0  0  0  0
   40.0520    0.2160   17.2850 C   0  0  0  0  0  0  0  0  0  0  0  0
   42.1990    3.8720   19.0030 C   0  0  0  0  0  0  0  0  0  0  0  0
   43.5520    3.5360   18.8310 C   0  0  0  0  0  0  0  0  0  0  0  0
   44.5000    4.5010   18.6640 C   0  0  0  0  0  0  0  0  0  0  0  0
   44.1430    5.8630   18.6670 C   0  0  0  0  0  0  0  0  0  0  0  0
   45.1050    6.8160   18.4770 N   0  0  0  0  0  0  0  0  0  0  0  0
   44.6710    8.0830   18.4680 C   0  0  0  0  0  0  0  0  0  0  0  0
   45.5520    9.0330   18.2250 O   0  0  0  0  0  0  0  0  0  0  0  0
   43.3310    8.4290   18.6440 C   0  0  0  0  0  0  0  0  0  0  0  0
   42.3950    7.5210   18.8270 N   0  0  0  0  0  0  0  0  0  0  0  0
   42.7930    6.2130   18.8420 C   0  0  0  0  0  0  0  0  0  0  0  0
   41.8240    5.1970   19.0120 C   0  0  0  0  0  0  0  0  0  0  0  0
   42.5370    1.4690   18.2660 H   0  0  0  0  0  0  0  0  0  0  0  0
   39.8781    0.4975   19.3510 H   0  0  0  0  0  0  0  0  0  0  0  0
   42.0389   -1.2331   18.1956 H   0  0  0  0  0  0  0  0  0  0  0  0
   42.3018   -0.4023   19.8103 H   0  0  0  0  0  0  0  0  0  0  0  0
   41.5238   -2.5497   20.3167 H   0  0  0  0  0  0  0  0  0  0  0  0
   40.1116   -1.3898   20.5060 H   0  0  0  0  0  0  0  0  0  0  0  0
   40.5540   -3.1401   18.0895 H   0  0  0  0  0  0  0  0  0  0  0  0
   39.5278   -3.5746   19.5323 H   0  0  0  0  0  0  0  0  0  0  0  0
   38.0268   -1.8512   15.4405 H   0  0  0  0  0  0  0  0  0  0  0  0
   38.6320   -0.2058   13.6714 H   0  0  0  0  0  0  0  0  0  0  0  0
   40.1421    1.6847   14.2017 H   0  0  0  0  0  0  0  0  0  0  0  0
   41.0349    1.9637   16.4903 H   0  0  0  0  0  0  0  0  0  0  0  0
   43.8512    2.4775   18.8311 H   0  0  0  0  0  0  0  0  0  0  0  0
   45.5527    4.2134   18.5257 H   0  0  0  0  0  0  0  0  0  0  0  0
   46.5060    8.8020   18.0980 H   0  0  0  0  0  0  0  0  0  0  0  0
   43.0479    9.4919   18.6295 H   0  0  0  0  0  0  0  0  0  0  0  0
   40.7667    5.4662   19.1520 H   0  0  0  0  0  0  0  0  0  0  0  0
  1  2  2  0
  2  3  1  0
  3  4  1  0
  4  5  1  0
  5  6  1  0
  6  7  1  0
  7  8  1  0
  8  9  2  0
  8 10  2  0
  8 11  1  0
 11 12  2  0
 12 13  1  0
 13 14  2  0
 14 15  1  0
 15 16  2  0
  2 17  1  0
 17 18  2  0
 18 19  1  0
 19 20  2  0
 20 21  1  0
 21 22  2  0
 22 23  1  0
 22 24  1  0
 24 25  2  0
 25 26  1  0
 26 27  2  0
 16  4  1  0
 27 17  1  0
 16 11  1  0
 26 20  1  0
  3 28  1  0
  4 29  1  1
  5 30  1  0
  5 31  1  0
  6 32  1  0
  6 33  1  0
  7 34  1  0
  7 35  1  0
 12 36  1  0
 13 37  1  0
 14 38  1  0
 15 39  1  0
 18 40  1  0
 19 41  1  0
 23 42  1  0
 24 43  1  0
 27 44  1  0
M  END
>  <meeko>  (1) 
{"is_sidechain": [false]}

$$$$
