9DTAligand
     RDKit          3D

 55 58  0  0  0  0  0  0  0  0999 V2000
   40.6040   -2.4800   18.9720 C   0  0  0  0  0  0  0  0  0  0  0  0
   39.8690   -1.2710   19.0490 O   0  0  0  0  0  0  0  0  0  0  0  0
   39.7880   -0.5770   17.8590 C   0  0  0  0  0  0  0  0  0  0  0  0
   38.9720   -1.0560   16.7870 C   0  0  0  0  0  0  0  0  0  0  0  0
   38.1220   -2.2110   16.8950 C   0  0  0  0  0  0  0  0  0  0  0  0
   37.3990   -3.0980   16.9370 N   0  0  0  0  0  0  0  0  0  0  0  0
   38.9110   -0.3100   15.6100 C   0  0  0  0  0  0  0  0  0  0  0  0
   39.6130    0.8770   15.4980 C   0  0  0  0  0  0  0  0  0  0  0  0
   40.3950    1.3310   16.5510 C   0  0  0  0  0  0  0  0  0  0  0  0
   40.4970    0.6180   17.7420 C   0  0  0  0  0  0  0  0  0  0  0  0
   41.3220    1.1470   18.8950 C   0  0  0  0  0  0  0  0  0  0  0  0
   41.3400    2.6620   18.9990 C   0  0  0  0  0  0  0  0  0  0  0  0
   40.4220    3.2850   19.5330 O   0  0  0  0  0  0  0  0  0  0  0  0
   42.4400    3.2410   18.4600 N   0  0  0  0  0  0  0  0  0  0  0  0
   42.8740    4.5850   18.5350 C   0  0  0  0  0  0  0  0  0  0  0  0
   42.0130    5.6790   18.5950 C   0  0  0  0  0  0  0  0  0  0  0  0
   42.5180    6.9720   18.5620 C   0  0  0  0  0  0  0  0  0  0  0  0
   43.8970    7.1740   18.4750 C   0  0  0  0  0  0  0  0  0  0  0  0
   44.7670    6.0880   18.4150 C   0  0  0  0  0  0  0  0  0  0  0  0
   44.2480    4.7960   18.4530 C   0  0  0  0  0  0  0  0  0  0  0  0
   46.2050    6.3810   18.0860 C   0  0  0  0  0  0  0  0  0  0  0  0
   46.2640    7.4570   16.9920 C   0  0  0  0  0  0  0  0  0  0  0  0
   45.4610    8.7090   17.3410 C   0  0  0  0  0  0  0  0  0  0  0  0
   44.4680    8.4700   18.4100 N   0  0  0  0  0  0  0  0  0  0  0  0
   44.1330    9.5280   19.2060 C   0  0  0  0  0  0  0  0  0  0  0  0
   44.3490   10.7000   18.8630 O   0  0  0  0  0  0  0  0  0  0  0  0
   43.3730    9.2350   20.4640 C   0  0  0  0  0  0  0  0  0  0  0  0
   42.2130    9.9550   20.7620 C   0  0  0  0  0  0  0  0  0  0  0  0
   41.4680    9.6480   21.8910 C   0  0  0  0  0  0  0  0  0  0  0  0
   41.8680    8.6240   22.7360 C   0  0  0  0  0  0  0  0  0  0  0  0
   43.0180    7.9040   22.4520 C   0  0  0  0  0  0  0  0  0  0  0  0
   43.7690    8.2050   21.3240 C   0  0  0  0  0  0  0  0  0  0  0  0
   40.8235   -2.8410   19.9876 H   0  0  0  0  0  0  0  0  0  0  0  0
   40.0121   -3.2353   18.4343 H   0  0  0  0  0  0  0  0  0  0  0  0
   41.5470   -2.3022   18.4343 H   0  0  0  0  0  0  0  0  0  0  0  0
   38.3018   -0.6672   14.7666 H   0  0  0  0  0  0  0  0  0  0  0  0
   39.5510    1.4639   14.5697 H   0  0  0  0  0  0  0  0  0  0  0  0
   40.9469    2.2762   16.4417 H   0  0  0  0  0  0  0  0  0  0  0  0
   40.9091    0.7412   19.8303 H   0  0  0  0  0  0  0  0  0  0  0  0
   42.3595    0.8284   18.7159 H   0  0  0  0  0  0  0  0  0  0  0  0
   43.0480    2.6110   17.9170 H   0  0  0  0  0  0  0  0  0  0  0  0
   40.9274    5.5174   18.6689 H   0  0  0  0  0  0  0  0  0  0  0  0
   41.8350    7.8332   18.6042 H   0  0  0  0  0  0  0  0  0  0  0  0
   44.9302    3.9338   18.4179 H   0  0  0  0  0  0  0  0  0  0  0  0
   46.7219    6.7435   18.9868 H   0  0  0  0  0  0  0  0  0  0  0  0
   46.6965    5.4639   17.7290 H   0  0  0  0  0  0  0  0  0  0  0  0
   47.3146    7.7455   16.8406 H   0  0  0  0  0  0  0  0  0  0  0  0
   45.8211    7.0254   16.0823 H   0  0  0  0  0  0  0  0  0  0  0  0
   46.1574    9.4918   17.6761 H   0  0  0  0  0  0  0  0  0  0  0  0
   44.9109    9.0134   16.4384 H   0  0  0  0  0  0  0  0  0  0  0  0
   41.8890   10.7696   20.0976 H   0  0  0  0  0  0  0  0  0  0  0  0
   40.5557   10.2195   22.1170 H   0  0  0  0  0  0  0  0  0  0  0  0
   41.2739    8.3835   23.6300 H   0  0  0  0  0  0  0  0  0  0  0  0
   43.3363    7.0920   23.1223 H   0  0  0  0  0  0  0  0  0  0  0  0
   44.6810    7.6302   21.1050 H   0  0  0  0  0  0  0  0  0  0  0  0
  1  2  1  0
  2  3  1  0
  3  4  2  0
  4  5  1  0
  5  6  3  0
  4  7  1  0
  7  8  2  0
  8  9  1  0
  9 10  2  0
 10 11  1  0
 11 12  1  0
 12 13  2  0
 12 14  1  0
 14 15  1  0
 15 16  2  0
 16 17  1  0
 17 18  2  0
 18 19  1  0
 19 20  2  0
 19 21  1  0
 21 22  1  0
 22 23  1  0
 23 24  1  0
 24 25  1  0
 25 26  2  0
 25 27  1  0
 27 28  2  0
 28 29  1  0
 29 30  2  0
 30 31  1  0
 31 32  2  0
 10  3  1  0
 20 15  1  0
 32 27  1  0
 24 18  1  0
  1 33  1  0
  1 34  1  0
  1 35  1  0
  7 36  1  0
  8 37  1  0
  9 38  1  0
 11 39  1  0
 11 40  1  0
 14 41  1  0
 16 42  1  0
 17 43  1  0
 20 44  1  0
 21 45  1  0
 21 46  1  0
 22 47  1  0
 22 48  1  0
 23 49  1  0
 23 50  1  0
 28 51  1  0
 29 52  1  0
 30 53  1  0
 31 54  1  0
 32 55  1  0
M  END
>  <meeko>  (1) 
{"is_sidechain": [false]}

$$$$
