9EJOligand
     RDKit          3D

 47 51  0  0  0  0  0  0  0  0999 V2000
   39.9970    6.1530   22.4170 C   0  0  0  0  0  0  0  0  0  0  0  0
   40.4570    5.3100   21.3210 N   0  0  0  0  0  0  0  0  0  0  0  0
   39.9980    4.0400   21.0960 C   0  0  0  0  0  0  0  0  0  0  0  0
   39.1720    3.4620   21.7760 O   0  0  0  0  0  0  0  0  0  0  0  0
   40.7650    3.4620   19.9070 C   0  0  2  0  0  0  0  0  0  0  0  0
   41.3570    2.1030   20.2210 C   0  0  0  0  0  0  0  0  0  0  0  0
   41.1680    1.0070   19.4050 C   0  0  0  0  0  0  0  0  0  0  0  0
   40.4570    0.8490   18.1290 C   0  0  0  0  0  0  0  0  0  0  0  0
   39.6050   -0.2230   17.9330 C   0  0  0  0  0  0  0  0  0  0  0  0
   38.9680   -0.4080   16.7210 C   0  0  0  0  0  0  0  0  0  0  0  0
   39.1880    0.4890   15.7010 C   0  0  0  0  0  0  0  0  0  0  0  0
   38.4240    0.2260   14.1620 Cl  0  0  0  0  0  0  0  0  0  0  0  0
   40.0270    1.5610   15.8640 C   0  0  0  0  0  0  0  0  0  0  0  0
   40.6590    1.7430   17.0820 C   0  0  0  0  0  0  0  0  0  0  0  0
   41.7320   -0.0910   20.0090 N   0  0  0  0  0  0  0  0  0  0  0  0
   42.2710    0.2980   21.1880 C   0  0  0  0  0  0  0  0  0  0  0  0
   42.0690    1.6490   21.3640 C   0  0  0  0  0  0  0  0  0  0  0  0
   42.5970    2.3150   22.5260 C   0  0  0  0  0  0  0  0  0  0  0  0
   42.5040    3.5210   22.7790 O   0  0  0  0  0  0  0  0  0  0  0  0
   43.2620    1.4670   23.3930 N   0  0  0  0  0  0  0  0  0  0  0  0
   43.4720    0.1140   23.2430 C   0  0  0  0  0  0  0  0  0  0  0  0
   44.1260   -0.5240   24.0510 O   0  0  0  0  0  0  0  0  0  0  0  0
   42.9280   -0.4860   22.0910 N   0  0  0  0  0  0  0  0  0  0  0  0
   43.0360   -1.9390   21.9120 C   0  0  0  0  0  0  0  0  0  0  0  0
   41.7130    4.5870   19.5630 C   0  0  0  0  0  0  0  0  0  0  0  0
   42.7300    4.6680   18.6210 C   0  0  0  0  0  0  0  0  0  0  0  0
   43.4890    5.8270   18.5340 C   0  0  0  0  0  0  0  0  0  0  0  0
   43.2350    6.9000   19.3810 C   0  0  0  0  0  0  0  0  0  0  0  0
   42.2190    6.8280   20.3280 C   0  0  0  0  0  0  0  0  0  0  0  0
   41.4650    5.6590   20.4100 C   0  0  0  0  0  0  0  0  0  0  0  0
   40.2549    5.6804   23.3762 H   0  0  0  0  0  0  0  0  0  0  0  0
   40.4828    7.1377   22.3510 H   0  0  0  0  0  0  0  0  0  0  0  0
   38.9060    6.2773   22.3510 H   0  0  0  0  0  0  0  0  0  0  0  0
   40.1634    3.1988   19.0245 H   0  0  0  0  0  0  0  0  0  0  0  0
   39.4325   -0.9368   18.7520 H   0  0  0  0  0  0  0  0  0  0  0  0
   38.2922   -1.2632   16.5730 H   0  0  0  0  0  0  0  0  0  0  0  0
   40.1957    2.2672   15.0377 H   0  0  0  0  0  0  0  0  0  0  0  0
   41.3285    2.6042   17.2239 H   0  0  0  0  0  0  0  0  0  0  0  0
   41.7430   -1.0480   19.6290 H   0  0  0  0  0  0  0  0  0  0  0  0
   43.6440    1.8960   24.2480 H   0  0  0  0  0  0  0  0  0  0  0  0
   43.0723   -2.4280   22.8966 H   0  0  0  0  0  0  0  0  0  0  0  0
   42.1626   -2.3054   21.3526 H   0  0  0  0  0  0  0  0  0  0  0  0
   43.9540   -2.1723   21.3526 H   0  0  0  0  0  0  0  0  0  0  0  0
   42.9325    3.8208   17.9493 H   0  0  0  0  0  0  0  0  0  0  0  0
   44.2965    5.8970   17.7903 H   0  0  0  0  0  0  0  0  0  0  0  0
   43.8427    7.8134   19.3014 H   0  0  0  0  0  0  0  0  0  0  0  0
   42.0149    7.6760   20.9982 H   0  0  0  0  0  0  0  0  0  0  0  0
  1  2  1  0
  2  3  1  0
  3  4  2  0
  3  5  1  0
  5  6  1  0
  6  7  2  0
  7  8  1  0
  8  9  2  0
  9 10  1  0
 10 11  2  0
 11 12  1  0
 11 13  1  0
 13 14  2  0
  7 15  1  0
 15 16  1  0
 16 17  2  0
 17 18  1  0
 18 19  2  0
 18 20  1  0
 20 21  1  0
 21 22  2  0
 21 23  1  0
 23 24  1  0
  5 25  1  0
 25 26  2  0
 26 27  1  0
 27 28  2  0
 28 29  1  0
 29 30  2  0
 30  2  1  0
 17  6  1  0
 30 25  1  0
 14  8  1  0
 23 16  1  0
  1 31  1  0
  1 32  1  0
  1 33  1  0
  5 34  1  6
  9 35  1  0
 10 36  1  0
 13 37  1  0
 14 38  1  0
 15 39  1  0
 20 40  1  0
 24 41  1  0
 24 42  1  0
 24 43  1  0
 26 44  1  0
 27 45  1  0
 28 46  1  0
 29 47  1  0
M  END
>  <meeko>  (1) 
{"is_sidechain": [false]}

$$$$
