9MK7ligand
     RDKit          3D

 57 61  0  0  0  0  0  0  0  0999 V2000
   39.1610    4.5090   21.6590 C   0  0  0  0  0  0  0  0  0  0  0  0
   40.1950    5.3710   21.1420 N   0  0  0  0  0  0  0  0  0  0  0  0
   41.1560    4.9610   20.3050 C   0  0  0  0  0  0  0  0  0  0  0  0
   41.1030    3.6830   19.9010 N   0  0  0  0  0  0  0  0  0  0  0  0
   42.1240    3.2580   19.1420 C   0  0  0  0  0  0  0  0  0  0  0  0
   41.9950    1.9940   18.6210 N   0  0  0  0  0  0  0  0  0  0  0  0
   40.8070    1.1600   18.7320 C   0  0  2  0  0  0  0  0  0  0  0  0
   40.9700   -0.1490   19.5280 C   0  0  0  0  0  0  0  0  0  0  0  0
   39.9450   -1.1380   18.9370 C   0  0  0  0  0  0  0  0  0  0  0  0
   39.6460   -0.5550   17.5800 C   0  0  0  0  0  0  0  0  0  0  0  0
   38.9570   -1.1390   16.5050 C   0  0  0  0  0  0  0  0  0  0  0  0
   38.2560   -2.3840   16.6920 C   0  0  0  0  0  0  0  0  0  0  0  0
   37.7180   -3.3780   16.8780 N   0  0  0  0  0  0  0  0  0  0  0  0
   38.8380   -0.4450   15.3000 C   0  0  0  0  0  0  0  0  0  0  0  0
   39.3880    0.8210   15.1650 C   0  0  0  0  0  0  0  0  0  0  0  0
   40.0630    1.4000   16.2230 C   0  0  0  0  0  0  0  0  0  0  0  0
   40.1870    0.7160   17.4280 C   0  0  0  0  0  0  0  0  0  0  0  0
   43.2000    4.0920   18.8040 C   0  0  0  0  0  0  0  0  0  0  0  0
   43.1470    5.4080   19.2720 C   0  0  0  0  0  0  0  0  0  0  0  0
   44.1560    6.4430   18.9100 C   0  0  0  0  0  0  0  0  0  0  0  0
   45.2950    6.1380   18.1640 C   0  0  0  0  0  0  0  0  0  0  0  0
   46.2110    7.1260   17.8340 C   0  0  0  0  0  0  0  0  0  0  0  0
   46.0110    8.4350   18.2380 C   0  0  0  0  0  0  0  0  0  0  0  0
   44.8780    8.7700   18.9930 C   0  0  0  0  0  0  0  0  0  0  0  0
   44.7090   10.0850   19.4880 N   0  0  0  0  0  0  0  0  0  0  0  0
   45.7360   11.1280   19.4070 C   0  0  0  0  0  0  0  0  0  0  0  0
   45.2840   12.1730   20.4480 C   0  0  0  0  0  0  0  0  0  0  0  0
   44.0890   11.5480   21.2040 C   0  0  0  0  0  0  0  0  0  0  0  0
   43.5250   10.5330   20.2290 C   0  0  0  0  0  0  0  0  0  0  0  0
   43.9550    7.7660   19.3190 C   0  0  0  0  0  0  0  0  0  0  0  0
   42.1280    5.8460   20.0260 N   0  0  0  0  0  0  0  0  0  0  0  0
   39.1837    4.5279   22.7586 H   0  0  0  0  0  0  0  0  0  0  0  0
   38.1802    4.8606   21.3064 H   0  0  0  0  0  0  0  0  0  0  0  0
   39.3304    3.4809   21.3064 H   0  0  0  0  0  0  0  0  0  0  0  0
   40.1940    6.3590   21.4330 H   0  0  0  0  0  0  0  0  0  0  0  0
   42.8020    1.6060   18.1120 H   0  0  0  0  0  0  0  0  0  0  0  0
   40.1642    1.8772   19.2634 H   0  0  0  0  0  0  0  0  0  0  0  0
   41.9908   -0.5420   19.4119 H   0  0  0  0  0  0  0  0  0  0  0  0
   40.8015    0.0104   20.6033 H   0  0  0  0  0  0  0  0  0  0  0  0
   40.3762   -2.1459   18.8469 H   0  0  0  0  0  0  0  0  0  0  0  0
   39.0482   -1.2550   19.5631 H   0  0  0  0  0  0  0  0  0  0  0  0
   38.3058   -0.9040   14.4538 H   0  0  0  0  0  0  0  0  0  0  0  0
   39.2868    1.3652   14.2144 H   0  0  0  0  0  0  0  0  0  0  0  0
   40.5024    2.4023   16.1122 H   0  0  0  0  0  0  0  0  0  0  0  0
   44.0443    3.7281   18.2001 H   0  0  0  0  0  0  0  0  0  0  0  0
   45.4684    5.1031   17.8341 H   0  0  0  0  0  0  0  0  0  0  0  0
   47.1040    6.8672   17.2462 H   0  0  0  0  0  0  0  0  0  0  0  0
   46.7408    9.2121   17.9667 H   0  0  0  0  0  0  0  0  0  0  0  0
   46.7263   10.7232   19.6629 H   0  0  0  0  0  0  0  0  0  0  0  0
   45.8339   11.5502   18.3960 H   0  0  0  0  0  0  0  0  0  0  0  0
   46.1040   12.3923   21.1476 H   0  0  0  0  0  0  0  0  0  0  0  0
   44.9992   13.1194   19.9651 H   0  0  0  0  0  0  0  0  0  0  0  0
   44.4258   11.0562   22.1285 H   0  0  0  0  0  0  0  0  0  0  0  0
   43.3447   12.2976   21.5109 H   0  0  0  0  0  0  0  0  0  0  0  0
   43.0527    9.6945   20.7619 H   0  0  0  0  0  0  0  0  0  0  0  0
   42.7415   10.9491   19.5787 H   0  0  0  0  0  0  0  0  0  0  0  0
   43.0599    8.0222   19.9048 H   0  0  0  0  0  0  0  0  0  0  0  0
  1  2  1  0
  2  3  1  0
  3  4  2  0
  4  5  1  0
  5  6  1  0
  6  7  1  0
  7  8  1  0
  8  9  1  0
  9 10  1  0
 10 11  2  0
 11 12  1  0
 12 13  3  0
 11 14  1  0
 14 15  2  0
 15 16  1  0
 16 17  2  0
  5 18  2  0
 18 19  1  0
 19 20  1  0
 20 21  2  0
 21 22  1  0
 22 23  2  0
 23 24  1  0
 24 25  1  0
 25 26  1  0
 26 27  1  0
 27 28  1  0
 28 29  1  0
 24 30  2  0
 19 31  2  0
 31  3  1  0
 17  7  1  0
 30 20  1  0
 17 10  1  0
 29 25  1  0
  1 32  1  0
  1 33  1  0
  1 34  1  0
  2 35  1  0
  6 36  1  0
  7 37  1  1
  8 38  1  0
  8 39  1  0
  9 40  1  0
  9 41  1  0
 14 42  1  0
 15 43  1  0
 16 44  1  0
 18 45  1  0
 21 46  1  0
 22 47  1  0
 23 48  1  0
 26 49  1  0
 26 50  1  0
 27 51  1  0
 27 52  1  0
 28 53  1  0
 28 54  1  0
 29 55  1  0
 29 56  1  0
 30 57  1  0
M  END
>  <meeko>  (1) 
{"is_sidechain": [false]}

$$$$
